Hello, world from development.
New line.
